GG1_A_2001
prProtoss 03312513273D 1   1.00000     0.00000     0
Protoss beta proteinsplus
 51 54  0  0  0  0            999 V2000
    4.6600   33.1010    6.2280 O   0  0  0  0  0  0  0  0  0  0  0  0
    7.4800   28.2920   11.0400 O   0  0  0  0  0  0  0  0  0  0  0  0
    8.9370   29.5240   12.0910 O   0  5  0  0  0  0  0  0  0  0  0  0
    8.5420   35.0730    7.3830 O   0  0  0  0  0  0  0  0  0  0  0  0
    6.1160   33.5450    4.5750 N   0  0  0  0  0  0  0  0  0  0  0  0
    6.5980   34.0880    6.8290 N   0  0  0  0  0  0  0  0  0  0  0  0
    5.1560   32.9630    3.6320 C   0  0  0  0  0  0  0  0  0  0  0  0
    6.1860   34.0960    8.2370 C   0  0  0  0  0  0  0  0  0  0  0  0
   16.7020   34.2930    3.7180 C   0  0  0  0  0  0  0  0  0  0  0  0
   16.8560   35.1940    2.6630 C   0  0  0  0  0  0  0  0  0  0  0  0
   15.4400   34.0940    4.2910 C   0  0  0  0  0  0  0  0  0  0  0  0
   12.0110   35.9830    2.7280 C   0  0  0  0  0  0  0  0  0  0  0  0
   15.7490   35.8910    2.1860 C   0  0  0  0  0  0  0  0  0  0  0  0
   14.3380   34.8000    3.8060 C   0  0  0  0  0  0  0  0  0  0  0  0
   13.2950   36.4940    2.2150 C   0  0  0  0  0  0  0  0  0  0  0  0
   10.9690   35.5660    3.1060 C   0  0  0  0  0  0  0  0  0  0  0  0
    7.7200   34.0350    2.8500 C   0  0  0  0  0  0  0  0  0  0  0  0
    8.9640   34.5620    2.4830 C   0  0  0  0  0  0  0  0  0  0  0  0
    5.8520   31.6960    9.0150 C   0  0  0  0  0  0  0  0  0  0  0  0
    7.8680   32.8640    9.6630 C   0  0  0  0  0  0  0  0  0  0  0  0
    6.2830   30.5700    9.7150 C   0  0  0  0  0  0  0  0  0  0  0  0
    8.3010   31.7410   10.3620 C   0  0  0  0  0  0  0  0  0  0  0  0
    9.4310   35.0980    4.7890 C   0  0  0  0  0  0  0  0  0  0  0  0
    5.7710   33.5720    5.8840 C   0  0  0  0  0  0  0  0  0  0  0  0
    7.9870   29.3910   11.1770 C   0  0  0  0  0  0  0  0  0  0  0  0
    7.7950   34.5970    6.4920 C   0  0  0  0  0  0  0  0  0  0  0  0
    7.3160   34.0460    4.1890 C   0  0  0  0  0  0  0  0  0  0  0  0
    6.6460   32.8480    8.9840 C   0  0  0  0  0  0  0  0  0  0  0  0
   14.4830   35.7010    2.7490 C   0  0  0  0  0  0  0  0  0  0  0  0
    9.8190   35.0950    3.4560 C   0  0  0  0  0  0  0  0  0  0  0  0
    7.5120   30.5890   10.3940 C   0  0  0  0  0  0  0  0  0  0  0  0
    8.1820   34.5870    5.1560 C   0  0  0  0  0  0  0  0  0  0  0  0
    5.5311   33.0049    2.7060 H   0  0  0  0  0  0  0  0  0  0  0  0
    4.9827   32.0095    3.8786 H   0  0  0  0  0  0  0  0  0  0  0  0
    4.2994   33.4776    3.6682 H   0  0  0  0  0  0  0  0  0  0  0  0
    5.1882   34.1463    8.2795 H   0  0  0  0  0  0  0  0  0  0  0  0
    6.5795   34.9003    8.6823 H   0  0  0  0  0  0  0  0  0  0  0  0
   17.4933   33.7894    4.0647 H   0  0  0  0  0  0  0  0  0  0  0  0
   17.7562   35.3381    2.2521 H   0  0  0  0  0  0  0  0  0  0  0  0
   15.3285   33.4476    5.0459 H   0  0  0  0  0  0  0  0  0  0  0  0
   15.8608   36.5364    1.4304 H   0  0  0  0  0  0  0  0  0  0  0  0
   13.4379   34.6596    4.2185 H   0  0  0  0  0  0  0  0  0  0  0  0
   13.3951   37.4499    2.4913 H   0  0  0  0  0  0  0  0  0  0  0  0
   13.2900   36.4343    1.2168 H   0  0  0  0  0  0  0  0  0  0  0  0
    7.1174   33.6489    2.1515 H   0  0  0  0  0  0  0  0  0  0  0  0
    9.2431   34.5579    1.5228 H   0  0  0  0  0  0  0  0  0  0  0  0
    4.9750   31.6805    8.5348 H   0  0  0  0  0  0  0  0  0  0  0  0
    8.4347   33.6877    9.6463 H   0  0  0  0  0  0  0  0  0  0  0  0
    5.7156   29.7468    9.7336 H   0  0  0  0  0  0  0  0  0  0  0  0
    9.1781   31.7590   10.8419 H   0  0  0  0  0  0  0  0  0  0  0  0
   10.0451   35.4658    5.4873 H   0  0  0  0  0  0  0  0  0  0  0  0
  1 24  2  0  0  0  0
  2 25  2  0  0  0  0
  3 25  1  0  0  0  0
  4 26  2  0  0  0  0
  5  7  1  0  0  0  0
  5 24  1  0  0  0  0
  5 27  1  0  0  0  0
  6  8  1  0  0  0  0
  6 24  1  0  0  0  0
  6 26  1  0  0  0  0
  8 28  1  0  0  0  0
  9 10  2  0  0  0  0
  9 11  1  0  0  0  0
 10 13  1  0  0  0  0
 11 14  2  0  0  0  0
 12 15  1  0  0  0  0
 12 16  3  0  0  0  0
 13 29  2  0  0  0  0
 14 29  1  0  0  0  0
 15 29  1  0  0  0  0
 16 30  1  0  0  0  0
 17 18  1  0  0  0  0
 17 27  2  0  0  0  0
 18 30  2  0  0  0  0
 19 21  1  0  0  0  0
 19 28  2  0  0  0  0
 20 22  2  0  0  0  0
 20 28  1  0  0  0  0
 21 31  2  0  0  0  0
 22 31  1  0  0  0  0
 23 30  1  0  0  0  0
 23 32  2  0  0  0  0
 25 31  1  0  0  0  0
 26 32  1  0  0  0  0
 27 32  1  0  0  0  0
 23 51  1  0  0  0  0
  7 33  1  0  0  0  0
  7 34  1  0  0  0  0
  7 35  1  0  0  0  0
  8 36  1  0  0  0  0
  8 37  1  0  0  0  0
  9 38  1  0  0  0  0
 10 39  1  0  0  0  0
 11 40  1  0  0  0  0
 13 41  1  0  0  0  0
 14 42  1  0  0  0  0
 15 43  1  0  0  0  0
 15 44  1  0  0  0  0
 17 45  1  0  0  0  0
 18 46  1  0  0  0  0
 19 47  1  0  0  0  0
 20 48  1  0  0  0  0
 21 49  1  0  0  0  0
 22 50  1  0  0  0  0
M  CHG  1   3  -1
M  END
$$$$
GG1_B_2002
prProtoss 03312513273D 1   1.00000     0.00000     0
Protoss beta proteinsplus
 51 54  0  0  0  0            999 V2000
    4.6820   -2.7820    5.9840 O   0  0  0  0  0  0  0  0  0  0  0  0
    7.5130   -7.6830   11.0650 O   0  0  0  0  0  0  0  0  0  0  0  0
    9.1380   -6.4740   11.8800 O   0  5  0  0  0  0  0  0  0  0  0  0
    8.6070   -1.0480    7.2780 O   0  0  0  0  0  0  0  0  0  0  0  0
    6.1510   -2.2860    4.3880 N   0  0  0  0  0  0  0  0  0  0  0  0
    6.6430   -1.9210    6.6560 N   0  0  0  0  0  0  0  0  0  0  0  0
    5.1540   -2.7700    3.4230 C   0  0  0  0  0  0  0  0  0  0  0  0
    6.2080   -1.9870    8.0620 C   0  0  0  0  0  0  0  0  0  0  0  0
   16.6080   -1.8210    3.8050 C   0  0  0  0  0  0  0  0  0  0  0  0
   16.8770   -0.8830    2.8080 C   0  0  0  0  0  0  0  0  0  0  0  0
   15.3040   -2.0020    4.2680 C   0  0  0  0  0  0  0  0  0  0  0  0
   12.1070    0.0510    2.6110 C   0  0  0  0  0  0  0  0  0  0  0  0
   15.8460   -0.1270    2.2660 C   0  0  0  0  0  0  0  0  0  0  0  0
   14.2720   -1.2460    3.7210 C   0  0  0  0  0  0  0  0  0  0  0  0
   13.4120    0.5480    2.1260 C   0  0  0  0  0  0  0  0  0  0  0  0
   11.0540   -0.3540    2.9790 C   0  0  0  0  0  0  0  0  0  0  0  0
    7.7530   -1.7320    2.6880 C   0  0  0  0  0  0  0  0  0  0  0  0
    9.0080   -1.2430    2.3320 C   0  0  0  0  0  0  0  0  0  0  0  0
    5.9160   -4.3280    8.9550 C   0  0  0  0  0  0  0  0  0  0  0  0
    7.9660   -3.1570    9.4710 C   0  0  0  0  0  0  0  0  0  0  0  0
    6.3420   -5.4400    9.6720 C   0  0  0  0  0  0  0  0  0  0  0  0
    8.4030   -4.2650   10.1930 C   0  0  0  0  0  0  0  0  0  0  0  0
    9.5070   -0.8760    4.6600 C   0  0  0  0  0  0  0  0  0  0  0  0
    5.8070   -2.3320    5.6820 C   0  0  0  0  0  0  0  0  0  0  0  0
    8.0790   -6.5990   11.0960 C   0  0  0  0  0  0  0  0  0  0  0  0
    7.8520   -1.4300    6.3490 C   0  0  0  0  0  0  0  0  0  0  0  0
    7.3610   -1.8010    4.0270 C   0  0  0  0  0  0  0  0  0  0  0  0
    6.7160   -3.1920    8.8400 C   0  0  0  0  0  0  0  0  0  0  0  0
   14.5340   -0.2980    2.7150 C   0  0  0  0  0  0  0  0  0  0  0  0
    9.8890   -0.8090    3.3230 C   0  0  0  0  0  0  0  0  0  0  0  0
    7.5950   -5.4140   10.2970 C   0  0  0  0  0  0  0  0  0  0  0  0
    8.2440   -1.3620    5.0120 C   0  0  0  0  0  0  0  0  0  0  0  0
    5.5199   -2.6876    2.4960 H   0  0  0  0  0  0  0  0  0  0  0  0
    4.9431   -3.7286    3.6141 H   0  0  0  0  0  0  0  0  0  0  0  0
    4.3206   -2.2231    3.5022 H   0  0  0  0  0  0  0  0  0  0  0  0
    5.2083   -2.0084    8.0761 H   0  0  0  0  0  0  0  0  0  0  0  0
    6.5303   -1.1613    8.5249 H   0  0  0  0  0  0  0  0  0  0  0  0
   17.3529   -2.3661    4.1896 H   0  0  0  0  0  0  0  0  0  0  0  0
   17.8140   -0.7548    2.4831 H   0  0  0  0  0  0  0  0  0  0  0  0
   15.1128   -2.6699    4.9873 H   0  0  0  0  0  0  0  0  0  0  0  0
   16.0436    0.5433    1.5507 H   0  0  0  0  0  0  0  0  0  0  0  0
   13.3354   -1.3777    4.0459 H   0  0  0  0  0  0  0  0  0  0  0  0
   13.5306    1.5002    2.4075 H   0  0  0  0  0  0  0  0  0  0  0  0
   13.4401    0.4894    1.1281 H   0  0  0  0  0  0  0  0  0  0  0  0
    7.1232   -2.0383    1.9741 H   0  0  0  0  0  0  0  0  0  0  0  0
    9.2764   -1.2032    1.3695 H   0  0  0  0  0  0  0  0  0  0  0  0
    5.0189   -4.3431    8.5134 H   0  0  0  0  0  0  0  0  0  0  0  0
    8.5410   -2.3417    9.4035 H   0  0  0  0  0  0  0  0  0  0  0  0
    5.7598   -6.2501    9.7408 H   0  0  0  0  0  0  0  0  0  0  0  0
    9.2969   -4.2446   10.6408 H   0  0  0  0  0  0  0  0  0  0  0  0
   10.1399   -0.5746    5.3732 H   0  0  0  0  0  0  0  0  0  0  0  0
  1 24  2  0  0  0  0
  2 25  2  0  0  0  0
  3 25  1  0  0  0  0
  4 26  2  0  0  0  0
  5  7  1  0  0  0  0
  5 24  1  0  0  0  0
  5 27  1  0  0  0  0
  6  8  1  0  0  0  0
  6 24  1  0  0  0  0
  6 26  1  0  0  0  0
  8 28  1  0  0  0  0
  9 10  2  0  0  0  0
  9 11  1  0  0  0  0
 10 13  1  0  0  0  0
 11 14  2  0  0  0  0
 12 15  1  0  0  0  0
 12 16  3  0  0  0  0
 13 29  2  0  0  0  0
 14 29  1  0  0  0  0
 15 29  1  0  0  0  0
 16 30  1  0  0  0  0
 17 18  1  0  0  0  0
 17 27  2  0  0  0  0
 18 30  2  0  0  0  0
 19 21  1  0  0  0  0
 19 28  2  0  0  0  0
 20 22  2  0  0  0  0
 20 28  1  0  0  0  0
 21 31  2  0  0  0  0
 22 31  1  0  0  0  0
 23 30  1  0  0  0  0
 23 32  2  0  0  0  0
 25 31  1  0  0  0  0
 26 32  1  0  0  0  0
 27 32  1  0  0  0  0
 23 51  1  0  0  0  0
  7 33  1  0  0  0  0
  7 34  1  0  0  0  0
  7 35  1  0  0  0  0
  8 36  1  0  0  0  0
  8 37  1  0  0  0  0
  9 38  1  0  0  0  0
 10 39  1  0  0  0  0
 11 40  1  0  0  0  0
 13 41  1  0  0  0  0
 14 42  1  0  0  0  0
 15 43  1  0  0  0  0
 15 44  1  0  0  0  0
 17 45  1  0  0  0  0
 18 46  1  0  0  0  0
 19 47  1  0  0  0  0
 20 48  1  0  0  0  0
 21 49  1  0  0  0  0
 22 50  1  0  0  0  0
M  CHG  1   3  -1
M  END
$$$$
GG1_C_2003
prProtoss 03312513273D 1   1.00000     0.00000     0
Protoss beta proteinsplus
 51 54  0  0  0  0            999 V2000
   -6.8020   26.3460   21.2510 O   0  0  0  0  0  0  0  0  0  0  0  0
  -12.1440   22.4660   25.9620 O   0  0  0  0  0  0  0  0  0  0  0  0
  -11.2900   21.2570   24.3640 O   0  5  0  0  0  0  0  0  0  0  0  0
   -7.7780   28.1120   25.2540 O   0  0  0  0  0  0  0  0  0  0  0  0
   -5.0950   26.8380   22.6030 N   0  0  0  0  0  0  0  0  0  0  0  0
   -7.2980   27.2360   23.2710 N   0  0  0  0  0  0  0  0  0  0  0  0
   -4.1880   26.3420   21.5500 C   0  0  0  0  0  0  0  0  0  0  0  0
   -8.7180   27.1930   22.9830 C   0  0  0  0  0  0  0  0  0  0  0  0
   -3.6770   27.4880   33.2260 C   0  0  0  0  0  0  0  0  0  0  0  0
   -2.6470   28.4360   33.3250 C   0  0  0  0  0  0  0  0  0  0  0  0
   -4.2500   27.2160   31.9760 C   0  0  0  0  0  0  0  0  0  0  0  0
   -2.8790   29.1360   28.4410 C   0  0  0  0  0  0  0  0  0  0  0  0
   -2.2140   29.0960   32.1710 C   0  0  0  0  0  0  0  0  0  0  0  0
   -3.8230   27.8970   30.8210 C   0  0  0  0  0  0  0  0  0  0  0  0
   -2.2920   29.6090   29.7000 C   0  0  0  0  0  0  0  0  0  0  0  0
   -3.3120   28.7350   27.4050 C   0  0  0  0  0  0  0  0  0  0  0  0
   -3.2600   27.3410   24.0820 C   0  0  0  0  0  0  0  0  0  0  0  0
   -2.8170   27.8270   25.3140 C   0  0  0  0  0  0  0  0  0  0  0  0
   -9.5000   24.8020   22.7210 C   0  0  0  0  0  0  0  0  0  0  0  0
   -9.9660   25.9460   24.7850 C   0  0  0  0  0  0  0  0  0  0  0  0
  -10.1670   23.6670   23.1880 C   0  0  0  0  0  0  0  0  0  0  0  0
  -10.6280   24.8030   25.2470 C   0  0  0  0  0  0  0  0  0  0  0  0
   -5.1070   28.2460   25.9900 C   0  0  0  0  0  0  0  0  0  0  0  0
   -6.4090   26.7990   22.3510 C   0  0  0  0  0  0  0  0  0  0  0  0
  -11.4340   22.4270   24.9720 C   0  0  0  0  0  0  0  0  0  0  0  0
   -6.9080   27.7220   24.4510 C   0  0  0  0  0  0  0  0  0  0  0  0
   -4.6380   27.3080   23.7910 C   0  0  0  0  0  0  0  0  0  0  0  0
   -9.3910   25.9450   23.5180 C   0  0  0  0  0  0  0  0  0  0  0  0
   -2.7890   28.8370   30.9110 C   0  0  0  0  0  0  0  0  0  0  0  0
   -3.7400   28.2780   26.2680 C   0  0  0  0  0  0  0  0  0  0  0  0
  -10.7310   23.6590   24.4540 C   0  0  0  0  0  0  0  0  0  0  0  0
   -5.5540   27.7630   24.7530 C   0  0  0  0  0  0  0  0  0  0  0  0
   -3.2408   26.4247   21.8598 H   0  0  0  0  0  0  0  0  0  0  0  0
   -4.3933   25.3823   21.3581 H   0  0  0  0  0  0  0  0  0  0  0  0
   -4.3152   26.8828   20.7185 H   0  0  0  0  0  0  0  0  0  0  0  0
   -8.8435   27.2230   21.9914 H   0  0  0  0  0  0  0  0  0  0  0  0
   -9.1521   27.9925   23.3982 H   0  0  0  0  0  0  0  0  0  0  0  0
   -4.0002   27.0094   34.0424 H   0  0  0  0  0  0  0  0  0  0  0  0
   -2.2278   28.6371   34.2103 H   0  0  0  0  0  0  0  0  0  0  0  0
   -4.9724   26.5283   31.9040 H   0  0  0  0  0  0  0  0  0  0  0  0
   -1.4776   29.7689   32.2416 H   0  0  0  0  0  0  0  0  0  0  0  0
   -4.2563   27.7104   29.9393 H   0  0  0  0  0  0  0  0  0  0  0  0
   -2.5262   30.5739   29.8186 H   0  0  0  0  0  0  0  0  0  0  0  0
   -1.2983   29.5115   29.6452 H   0  0  0  0  0  0  0  0  0  0  0  0
   -2.5986   27.0162   23.4059 H   0  0  0  0  0  0  0  0  0  0  0  0
   -1.8381   27.8534   25.5164 H   0  0  0  0  0  0  0  0  0  0  0  0
   -9.0960   24.7967   21.8063 H   0  0  0  0  0  0  0  0  0  0  0  0
   -9.9064   26.7599   25.3629 H   0  0  0  0  0  0  0  0  0  0  0  0
  -10.2379   22.8567   22.6063 H   0  0  0  0  0  0  0  0  0  0  0  0
  -11.0342   24.8058   26.1608 H   0  0  0  0  0  0  0  0  0  0  0  0
   -5.7653   28.5666   26.6711 H   0  0  0  0  0  0  0  0  0  0  0  0
  1 24  2  0  0  0  0
  2 25  2  0  0  0  0
  3 25  1  0  0  0  0
  4 26  2  0  0  0  0
  5  7  1  0  0  0  0
  5 24  1  0  0  0  0
  5 27  1  0  0  0  0
  6  8  1  0  0  0  0
  6 24  1  0  0  0  0
  6 26  1  0  0  0  0
  8 28  1  0  0  0  0
  9 10  2  0  0  0  0
  9 11  1  0  0  0  0
 10 13  1  0  0  0  0
 11 14  2  0  0  0  0
 12 15  1  0  0  0  0
 12 16  3  0  0  0  0
 13 29  2  0  0  0  0
 14 29  1  0  0  0  0
 15 29  1  0  0  0  0
 16 30  1  0  0  0  0
 17 18  1  0  0  0  0
 17 27  2  0  0  0  0
 18 30  2  0  0  0  0
 19 21  1  0  0  0  0
 19 28  2  0  0  0  0
 20 22  2  0  0  0  0
 20 28  1  0  0  0  0
 21 31  2  0  0  0  0
 22 31  1  0  0  0  0
 23 30  1  0  0  0  0
 23 32  2  0  0  0  0
 25 31  1  0  0  0  0
 26 32  1  0  0  0  0
 27 32  1  0  0  0  0
 23 51  1  0  0  0  0
  7 33  1  0  0  0  0
  7 34  1  0  0  0  0
  7 35  1  0  0  0  0
  8 36  1  0  0  0  0
  8 37  1  0  0  0  0
  9 38  1  0  0  0  0
 10 39  1  0  0  0  0
 11 40  1  0  0  0  0
 13 41  1  0  0  0  0
 14 42  1  0  0  0  0
 15 43  1  0  0  0  0
 15 44  1  0  0  0  0
 17 45  1  0  0  0  0
 18 46  1  0  0  0  0
 19 47  1  0  0  0  0
 20 48  1  0  0  0  0
 21 49  1  0  0  0  0
 22 50  1  0  0  0  0
M  CHG  1   3  -1
M  END
$$$$
HAE_C_3001
prProtoss 03312513273D 1   1.00000     0.00000     0
Protoss beta proteinsplus
  9  8  0  0  0  0            999 V2000
    0.7150   26.6140   38.3480 O   0  5  0  0  0  0  0  0  0  0  0  0
   -0.3290   28.6440   37.0410 O   0  0  0  0  0  0  0  0  0  0  0  0
   -0.4710   26.6580   38.0880 N   0  0  0  0  0  0  0  0  0  0  0  0
   -2.4850   27.5870   37.1620 C   0  0  0  0  0  0  0  0  0  0  0  0
   -1.0050   27.6880   37.4210 C   0  0  0  0  0  0  0  0  0  0  0  0
   -1.0625   25.9063   38.3795 H   0  0  0  0  0  0  0  0  0  0  0  0
   -2.8347   26.7360   37.5538 H   0  0  0  0  0  0  0  0  0  0  0  0
   -2.9511   28.3645   37.5841 H   0  0  0  0  0  0  0  0  0  0  0  0
   -2.6521   27.5934   36.1761 H   0  0  0  0  0  0  0  0  0  0  0  0
  1  3  1  0  0  0  0
  2  5  2  0  0  0  0
  3  5  1  0  0  0  0
  4  5  1  0  0  0  0
  4  9  1  0  0  0  0
  3  6  1  0  0  0  0
  4  7  1  0  0  0  0
  4  8  1  0  0  0  0
M  CHG  1   1  -1
M  END
$$$$
GG1_D_2004
prProtoss 03312513273D 1   1.00000     0.00000     0
Protoss beta proteinsplus
 51 54  0  0  0  0            999 V2000
   -6.8700   -9.6830   21.2500 O   0  0  0  0  0  0  0  0  0  0  0  0
  -11.3220  -14.6610   24.2610 O   0  0  0  0  0  0  0  0  0  0  0  0
  -12.1190  -13.6140   25.9720 O   0  5  0  0  0  0  0  0  0  0  0  0
   -7.7280   -7.8300   25.2110 O   0  0  0  0  0  0  0  0  0  0  0  0
   -5.0980   -9.2570   22.5900 N   0  0  0  0  0  0  0  0  0  0  0  0
   -7.2850   -8.7600   23.2390 N   0  0  0  0  0  0  0  0  0  0  0  0
   -4.1690   -9.7910   21.5770 C   0  0  0  0  0  0  0  0  0  0  0  0
   -8.7200   -8.7580   22.9640 C   0  0  0  0  0  0  0  0  0  0  0  0
   -3.7800   -8.4040   33.2120 C   0  0  0  0  0  0  0  0  0  0  0  0
   -2.7320   -7.4820   33.3180 C   0  0  0  0  0  0  0  0  0  0  0  0
   -4.3170   -8.6940   31.9510 C   0  0  0  0  0  0  0  0  0  0  0  0
   -2.7970   -6.9390   28.3870 C   0  0  0  0  0  0  0  0  0  0  0  0
   -2.2440   -6.8630   32.1570 C   0  0  0  0  0  0  0  0  0  0  0  0
   -3.8290   -8.0650   30.7980 C   0  0  0  0  0  0  0  0  0  0  0  0
   -2.2310   -6.4360   29.6620 C   0  0  0  0  0  0  0  0  0  0  0  0
   -3.2190   -7.3480   27.3500 C   0  0  0  0  0  0  0  0  0  0  0  0
   -3.2330   -8.7920   24.0400 C   0  0  0  0  0  0  0  0  0  0  0  0
   -2.7570   -8.2990   25.2600 C   0  0  0  0  0  0  0  0  0  0  0  0
   -9.4330  -11.1760   22.6920 C   0  0  0  0  0  0  0  0  0  0  0  0
  -10.0210  -10.0430   24.7260 C   0  0  0  0  0  0  0  0  0  0  0  0
  -10.0700  -12.3350   23.1420 C   0  0  0  0  0  0  0  0  0  0  0  0
  -10.6670  -11.2070   25.1770 C   0  0  0  0  0  0  0  0  0  0  0  0
   -5.0260   -7.7960   25.9380 C   0  0  0  0  0  0  0  0  0  0  0  0
   -6.4220   -9.2470   22.3350 C   0  0  0  0  0  0  0  0  0  0  0  0
  -11.3860  -13.6130   24.8730 C   0  0  0  0  0  0  0  0  0  0  0  0
   -6.8670   -8.2730   24.4130 C   0  0  0  0  0  0  0  0  0  0  0  0
   -4.6150   -8.7810   23.7610 C   0  0  0  0  0  0  0  0  0  0  0  0
   -9.3930  -10.0230   23.4820 C   0  0  0  0  0  0  0  0  0  0  0  0
   -2.7800   -7.1480   30.8920 C   0  0  0  0  0  0  0  0  0  0  0  0
   -3.6550   -7.8030   26.2160 C   0  0  0  0  0  0  0  0  0  0  0  0
  -10.6870  -12.3610   24.3910 C   0  0  0  0  0  0  0  0  0  0  0  0
   -5.5070   -8.2820   24.7140 C   0  0  0  0  0  0  0  0  0  0  0  0
   -3.2312   -9.7271   21.9182 H   0  0  0  0  0  0  0  0  0  0  0  0
   -4.3919  -10.7481   21.3919 H   0  0  0  0  0  0  0  0  0  0  0  0
   -4.2539   -9.2599   20.7339 H   0  0  0  0  0  0  0  0  0  0  0  0
   -8.8608   -8.6970   21.9758 H   0  0  0  0  0  0  0  0  0  0  0  0
   -9.1345   -7.9644   23.4094 H   0  0  0  0  0  0  0  0  0  0  0  0
   -4.1422   -8.8518   34.0295 H   0  0  0  0  0  0  0  0  0  0  0  0
   -2.3357   -7.2670   34.2106 H   0  0  0  0  0  0  0  0  0  0  0  0
   -5.0593   -9.3595   31.8727 H   0  0  0  0  0  0  0  0  0  0  0  0
   -1.4965   -6.2031   32.2330 H   0  0  0  0  0  0  0  0  0  0  0  0
   -4.2323   -8.2729   29.9069 H   0  0  0  0  0  0  0  0  0  0  0  0
   -2.4419   -5.4616   29.7396 H   0  0  0  0  0  0  0  0  0  0  0  0
   -1.2392   -6.5616   29.6396 H   0  0  0  0  0  0  0  0  0  0  0  0
   -2.5909   -9.1533   23.3638 H   0  0  0  0  0  0  0  0  0  0  0  0
   -1.7753   -8.3004   25.4503 H   0  0  0  0  0  0  0  0  0  0  0  0
   -8.9990  -11.1709   21.7911 H   0  0  0  0  0  0  0  0  0  0  0  0
  -10.0120   -9.2248   25.3008 H   0  0  0  0  0  0  0  0  0  0  0  0
  -10.0832  -13.1510   22.5641 H   0  0  0  0  0  0  0  0  0  0  0  0
  -11.1170  -11.2087   26.0700 H   0  0  0  0  0  0  0  0  0  0  0  0
   -5.6681   -7.4415   26.6177 H   0  0  0  0  0  0  0  0  0  0  0  0
  1 24  2  0  0  0  0
  2 25  2  0  0  0  0
  3 25  1  0  0  0  0
  4 26  2  0  0  0  0
  5  7  1  0  0  0  0
  5 24  1  0  0  0  0
  5 27  1  0  0  0  0
  6  8  1  0  0  0  0
  6 24  1  0  0  0  0
  6 26  1  0  0  0  0
  8 28  1  0  0  0  0
  9 10  2  0  0  0  0
  9 11  1  0  0  0  0
 10 13  1  0  0  0  0
 11 14  2  0  0  0  0
 12 15  1  0  0  0  0
 12 16  3  0  0  0  0
 13 29  2  0  0  0  0
 14 29  1  0  0  0  0
 15 29  1  0  0  0  0
 16 30  1  0  0  0  0
 17 18  1  0  0  0  0
 17 27  2  0  0  0  0
 18 30  2  0  0  0  0
 19 21  1  0  0  0  0
 19 28  2  0  0  0  0
 20 22  2  0  0  0  0
 20 28  1  0  0  0  0
 21 31  2  0  0  0  0
 22 31  1  0  0  0  0
 23 30  1  0  0  0  0
 23 32  2  0  0  0  0
 25 31  1  0  0  0  0
 26 32  1  0  0  0  0
 27 32  1  0  0  0  0
 23 51  1  0  0  0  0
  7 33  1  0  0  0  0
  7 34  1  0  0  0  0
  7 35  1  0  0  0  0
  8 36  1  0  0  0  0
  8 37  1  0  0  0  0
  9 38  1  0  0  0  0
 10 39  1  0  0  0  0
 11 40  1  0  0  0  0
 13 41  1  0  0  0  0
 14 42  1  0  0  0  0
 15 43  1  0  0  0  0
 15 44  1  0  0  0  0
 17 45  1  0  0  0  0
 18 46  1  0  0  0  0
 19 47  1  0  0  0  0
 20 48  1  0  0  0  0
 21 49  1  0  0  0  0
 22 50  1  0  0  0  0
M  CHG  1   3  -1
M  END
$$$$
HAE_D_3002
prProtoss 03312513273D 1   1.00000     0.00000     0
Protoss beta proteinsplus
  9  8  0  0  0  0            999 V2000
   -0.2520   -7.2950   36.8960 O   0  5  0  0  0  0  0  0  0  0  0  0
    0.2150   -9.7500   37.9140 O   0  0  0  0  0  0  0  0  0  0  0  0
    0.2760   -7.4840   37.9890 N   0  0  0  0  0  0  0  0  0  0  0  0
    1.1670   -8.7260   39.8470 C   0  0  0  0  0  0  0  0  0  0  0  0
    0.5040   -8.7100   38.4950 C   0  0  0  0  0  0  0  0  0  0  0  0
    0.5497   -6.6881   38.5290 H   0  0  0  0  0  0  0  0  0  0  0  0
    1.3211   -7.7868   40.1538 H   0  0  0  0  0  0  0  0  0  0  0  0
    0.5770   -9.1981   40.5020 H   0  0  0  0  0  0  0  0  0  0  0  0
    2.0431   -9.2038   39.7830 H   0  0  0  0  0  0  0  0  0  0  0  0
  1  3  1  0  0  0  0
  2  5  2  0  0  0  0
  3  5  1  0  0  0  0
  4  5  1  0  0  0  0
  4  9  1  0  0  0  0
  3  6  1  0  0  0  0
  4  7  1  0  0  0  0
  4  8  1  0  0  0  0
M  CHG  1   1  -1
M  END
$$$$
GG1_E_2005
prProtoss 03312513273D 1   1.00000     0.00000     0
Protoss beta proteinsplus
 51 54  0  0  0  0            999 V2000
   33.4920   -2.7530   55.4130 O   0  0  0  0  0  0  0  0  0  0  0  0
   32.9340    1.3900   61.3910 O   0  0  0  0  0  0  0  0  0  0  0  0
   31.0250    0.7590   62.2700 O   0  5  0  0  0  0  0  0  0  0  0  0
   29.0870   -2.9980   56.2120 O   0  0  0  0  0  0  0  0  0  0  0  0
   32.0920   -2.0290   53.8020 N   0  0  0  0  0  0  0  0  0  0  0  0
   31.2930   -2.8780   55.8390 N   0  0  0  0  0  0  0  0  0  0  0  0
   33.2270   -1.6830   52.9310 C   0  0  0  0  0  0  0  0  0  0  0  0
   31.5840   -3.4490   57.1600 C   0  0  0  0  0  0  0  0  0  0  0  0
   22.2710    1.9330   53.6010 C   0  0  0  0  0  0  0  0  0  0  0  0
   21.7990    1.5440   52.3580 C   0  0  0  0  0  0  0  0  0  0  0  0
   23.5160    1.4920   54.0290 C   0  0  0  0  0  0  0  0  0  0  0  0
   25.9720   -0.9270   51.5930 C   0  0  0  0  0  0  0  0  0  0  0  0
   22.5680    0.7140   51.5430 C   0  0  0  0  0  0  0  0  0  0  0  0
   24.2890    0.6590   53.2170 C   0  0  0  0  0  0  0  0  0  0  0  0
   24.6310   -0.6530   51.0450 C   0  0  0  0  0  0  0  0  0  0  0  0
   27.0530   -1.1370   52.0280 C   0  0  0  0  0  0  0  0  0  0  0  0
   30.6050   -1.2720   52.1160 C   0  0  0  0  0  0  0  0  0  0  0  0
   29.3160   -1.0450   51.6700 C   0  0  0  0  0  0  0  0  0  0  0  0
   32.9030   -1.7800   58.5340 C   0  0  0  0  0  0  0  0  0  0  0  0
   30.5460   -1.9830   58.9510 C   0  0  0  0  0  0  0  0  0  0  0  0
   32.9960   -0.8050   59.5330 C   0  0  0  0  0  0  0  0  0  0  0  0
   30.6390   -1.0120   59.9520 C   0  0  0  0  0  0  0  0  0  0  0  0
   28.4550   -1.9180   53.7480 C   0  0  0  0  0  0  0  0  0  0  0  0
   32.3160   -2.5600   55.0220 C   0  0  0  0  0  0  0  0  0  0  0  0
   31.9690    0.6380   61.3330 C   0  0  0  0  0  0  0  0  0  0  0  0
   30.0230   -2.6870   55.4480 C   0  0  0  0  0  0  0  0  0  0  0  0
   30.8340   -1.8190   53.3780 C   0  0  0  0  0  0  0  0  0  0  0  0
   31.6780   -2.3740   58.2320 C   0  0  0  0  0  0  0  0  0  0  0  0
   23.8190    0.2620   51.9580 C   0  0  0  0  0  0  0  0  0  0  0  0
   28.2390   -1.3590   52.4810 C   0  0  0  0  0  0  0  0  0  0  0  0
   31.8640   -0.4110   60.2470 C   0  0  0  0  0  0  0  0  0  0  0  0
   29.7610   -2.1460   54.1970 C   0  0  0  0  0  0  0  0  0  0  0  0
   32.8841   -1.3041   52.0714 H   0  0  0  0  0  0  0  0  0  0  0  0
   33.8031   -1.0052   53.3877 H   0  0  0  0  0  0  0  0  0  0  0  0
   33.7648   -2.5046   52.7421 H   0  0  0  0  0  0  0  0  0  0  0  0
   32.4545   -3.9393   57.1161 H   0  0  0  0  0  0  0  0  0  0  0  0
   30.8540   -4.0871   57.4047 H   0  0  0  0  0  0  0  0  0  0  0  0
   21.7189    2.5272   54.1859 H   0  0  0  0  0  0  0  0  0  0  0  0
   20.9035    1.8596   52.0441 H   0  0  0  0  0  0  0  0  0  0  0  0
   23.8615    1.7726   54.9245 H   0  0  0  0  0  0  0  0  0  0  0  0
   22.2167    0.4393   50.6480 H   0  0  0  0  0  0  0  0  0  0  0  0
   25.1829    0.3441   53.5359 H   0  0  0  0  0  0  0  0  0  0  0  0
   24.1424   -1.5189   50.9378 H   0  0  0  0  0  0  0  0  0  0  0  0
   24.7302   -0.2135   50.1522 H   0  0  0  0  0  0  0  0  0  0  0  0
   31.3803   -1.0417   51.5279 H   0  0  0  0  0  0  0  0  0  0  0  0
   29.1620   -0.6544   50.7624 H   0  0  0  0  0  0  0  0  0  0  0  0
   33.7231   -2.0537   58.0315 H   0  0  0  0  0  0  0  0  0  0  0  0
   29.6609   -2.4017   58.7477 H   0  0  0  0  0  0  0  0  0  0  0  0
   33.8812   -0.3870   59.7370 H   0  0  0  0  0  0  0  0  0  0  0  0
   29.8208   -0.7454   60.4614 H   0  0  0  0  0  0  0  0  0  0  0  0
   27.6771   -2.1536   54.3305 H   0  0  0  0  0  0  0  0  0  0  0  0
  1 24  2  0  0  0  0
  2 25  2  0  0  0  0
  3 25  1  0  0  0  0
  4 26  2  0  0  0  0
  5  7  1  0  0  0  0
  5 24  1  0  0  0  0
  5 27  1  0  0  0  0
  6  8  1  0  0  0  0
  6 24  1  0  0  0  0
  6 26  1  0  0  0  0
  8 28  1  0  0  0  0
  9 10  2  0  0  0  0
  9 11  1  0  0  0  0
 10 13  1  0  0  0  0
 11 14  2  0  0  0  0
 12 15  1  0  0  0  0
 12 16  3  0  0  0  0
 13 29  2  0  0  0  0
 14 29  1  0  0  0  0
 15 29  1  0  0  0  0
 16 30  1  0  0  0  0
 17 18  1  0  0  0  0
 17 27  2  0  0  0  0
 18 30  2  0  0  0  0
 19 21  1  0  0  0  0
 19 28  2  0  0  0  0
 20 22  2  0  0  0  0
 20 28  1  0  0  0  0
 21 31  2  0  0  0  0
 22 31  1  0  0  0  0
 23 30  1  0  0  0  0
 23 32  2  0  0  0  0
 25 31  1  0  0  0  0
 26 32  1  0  0  0  0
 27 32  1  0  0  0  0
 23 51  1  0  0  0  0
  7 33  1  0  0  0  0
  7 34  1  0  0  0  0
  7 35  1  0  0  0  0
  8 36  1  0  0  0  0
  8 37  1  0  0  0  0
  9 38  1  0  0  0  0
 10 39  1  0  0  0  0
 11 40  1  0  0  0  0
 13 41  1  0  0  0  0
 14 42  1  0  0  0  0
 15 43  1  0  0  0  0
 15 44  1  0  0  0  0
 17 45  1  0  0  0  0
 18 46  1  0  0  0  0
 19 47  1  0  0  0  0
 20 48  1  0  0  0  0
 21 49  1  0  0  0  0
 22 50  1  0  0  0  0
M  CHG  1   3  -1
M  END
$$$$
HAE_E_3003
prProtoss 03312513273D 1   1.00000     0.00000     0
Protoss beta proteinsplus
  9  8  0  0  0  0            999 V2000
   17.2960    6.1500   49.6400 O   0  5  0  0  0  0  0  0  0  0  0  0
   18.9070    4.0850   49.8300 O   0  0  0  0  0  0  0  0  0  0  0  0
   17.1820    5.3320   50.5430 N   0  0  0  0  0  0  0  0  0  0  0  0
   17.7450    3.3560   51.7930 C   0  0  0  0  0  0  0  0  0  0  0  0
   18.0040    4.2830   50.6320 C   0  0  0  0  0  0  0  0  0  0  0  0
   16.4612    5.4509   51.2259 H   0  0  0  0  0  0  0  0  0  0  0  0
   16.9680    3.6951   52.3234 H   0  0  0  0  0  0  0  0  0  0  0  0
   17.5392    2.4400   51.4487 H   0  0  0  0  0  0  0  0  0  0  0  0
   18.5560    3.3182   52.3768 H   0  0  0  0  0  0  0  0  0  0  0  0
  1  3  1  0  0  0  0
  2  5  2  0  0  0  0
  3  5  1  0  0  0  0
  4  5  1  0  0  0  0
  4  9  1  0  0  0  0
  3  6  1  0  0  0  0
  4  7  1  0  0  0  0
  4  8  1  0  0  0  0
M  CHG  1   1  -1
M  END
$$$$
GG1_F_2006
prProtoss 03312513273D 1   1.00000     0.00000     0
Protoss beta proteinsplus
 51 54  0  0  0  0            999 V2000
   33.4430  -38.3990   55.4970 O   0  0  0  0  0  0  0  0  0  0  0  0
   32.8280  -34.6040   61.5360 O   0  0  0  0  0  0  0  0  0  0  0  0
   30.8170  -35.2030   62.2150 O   0  5  0  0  0  0  0  0  0  0  0  0
   29.1250  -39.2770   56.4250 O   0  0  0  0  0  0  0  0  0  0  0  0
   31.9030  -37.7830   53.9700 N   0  0  0  0  0  0  0  0  0  0  0  0
   31.2850  -38.8390   55.9720 N   0  0  0  0  0  0  0  0  0  0  0  0
   32.9700  -37.2590   53.1030 C   0  0  0  0  0  0  0  0  0  0  0  0
   31.6940  -39.4320   57.2440 C   0  0  0  0  0  0  0  0  0  0  0  0
   22.0550  -34.1270   53.5810 C   0  0  0  0  0  0  0  0  0  0  0  0
   21.4310  -34.8720   52.5850 C   0  0  0  0  0  0  0  0  0  0  0  0
   23.3970  -34.3460   53.8720 C   0  0  0  0  0  0  0  0  0  0  0  0
   25.5970  -37.3570   51.9870 C   0  0  0  0  0  0  0  0  0  0  0  0
   22.1500  -35.8300   51.8770 C   0  0  0  0  0  0  0  0  0  0  0  0
   24.1110  -35.3070   53.1560 C   0  0  0  0  0  0  0  0  0  0  0  0
   24.2710  -37.1460   51.3740 C   0  0  0  0  0  0  0  0  0  0  0  0
   26.6840  -37.4880   52.4390 C   0  0  0  0  0  0  0  0  0  0  0  0
   30.2410  -37.1330   52.3860 C   0  0  0  0  0  0  0  0  0  0  0  0
   28.9030  -37.0640   52.0160 C   0  0  0  0  0  0  0  0  0  0  0  0
   32.9330  -37.6940   58.6100 C   0  0  0  0  0  0  0  0  0  0  0  0
   30.5850  -38.0280   59.0220 C   0  0  0  0  0  0  0  0  0  0  0  0
   32.9860  -36.7150   59.6020 C   0  0  0  0  0  0  0  0  0  0  0  0
   30.6410  -37.0480   60.0100 C   0  0  0  0  0  0  0  0  0  0  0  0
   28.2600  -38.1580   54.0610 C   0  0  0  0  0  0  0  0  0  0  0  0
   32.2350  -38.3400   55.1520 C   0  0  0  0  0  0  0  0  0  0  0  0
   31.8550  -35.3340   61.3870 C   0  0  0  0  0  0  0  0  0  0  0  0
   29.9830  -38.8010   55.6460 C   0  0  0  0  0  0  0  0  0  0  0  0
   30.6050  -37.7120   53.6030 C   0  0  0  0  0  0  0  0  0  0  0  0
   31.7400  -38.3560   58.3150 C   0  0  0  0  0  0  0  0  0  0  0  0
   23.5000  -36.0710   52.1490 C   0  0  0  0  0  0  0  0  0  0  0  0
   27.9090  -37.5750   52.8420 C   0  0  0  0  0  0  0  0  0  0  0  0
   31.8310  -36.3840   60.3060 C   0  0  0  0  0  0  0  0  0  0  0  0
   29.6090  -38.2270   54.4400 C   0  0  0  0  0  0  0  0  0  0  0  0
   32.5668  -36.8811   52.2695 H   0  0  0  0  0  0  0  0  0  0  0  0
   33.4700  -36.5407   53.5868 H   0  0  0  0  0  0  0  0  0  0  0  0
   33.5984  -37.9991   52.8634 H   0  0  0  0  0  0  0  0  0  0  0  0
   32.6008  -39.8415   57.1442 H   0  0  0  0  0  0  0  0  0  0  0  0
   31.0369  -40.1377   57.5090 H   0  0  0  0  0  0  0  0  0  0  0  0
   21.5392  -33.4354   54.0866 H   0  0  0  0  0  0  0  0  0  0  0  0
   20.4648  -34.7187   52.3779 H   0  0  0  0  0  0  0  0  0  0  0  0
   23.8480  -33.8172   54.5910 H   0  0  0  0  0  0  0  0  0  0  0  0
   21.6925  -36.3561   51.1601 H   0  0  0  0  0  0  0  0  0  0  0  0
   25.0778  -35.4547   53.3643 H   0  0  0  0  0  0  0  0  0  0  0  0
   23.7561  -38.0030   51.3954 H   0  0  0  0  0  0  0  0  0  0  0  0
   24.3878  -36.8509   50.4257 H   0  0  0  0  0  0  0  0  0  0  0  0
   30.9455  -36.7665   51.7782 H   0  0  0  0  0  0  0  0  0  0  0  0
   28.6526  -36.6416   51.1449 H   0  0  0  0  0  0  0  0  0  0  0  0
   33.7628  -37.9253   58.1021 H   0  0  0  0  0  0  0  0  0  0  0  0
   29.7225  -38.4927   58.8215 H   0  0  0  0  0  0  0  0  0  0  0  0
   33.8490  -36.2531   59.8067 H   0  0  0  0  0  0  0  0  0  0  0  0
   29.8111  -36.8158   60.5174 H   0  0  0  0  0  0  0  0  0  0  0  0
   27.5511  -38.5257   54.6629 H   0  0  0  0  0  0  0  0  0  0  0  0
  1 24  2  0  0  0  0
  2 25  2  0  0  0  0
  3 25  1  0  0  0  0
  4 26  2  0  0  0  0
  5  7  1  0  0  0  0
  5 24  1  0  0  0  0
  5 27  1  0  0  0  0
  6  8  1  0  0  0  0
  6 24  1  0  0  0  0
  6 26  1  0  0  0  0
  8 28  1  0  0  0  0
  9 10  2  0  0  0  0
  9 11  1  0  0  0  0
 10 13  1  0  0  0  0
 11 14  2  0  0  0  0
 12 15  1  0  0  0  0
 12 16  3  0  0  0  0
 13 29  2  0  0  0  0
 14 29  1  0  0  0  0
 15 29  1  0  0  0  0
 16 30  1  0  0  0  0
 17 18  1  0  0  0  0
 17 27  2  0  0  0  0
 18 30  2  0  0  0  0
 19 21  1  0  0  0  0
 19 28  2  0  0  0  0
 20 22  2  0  0  0  0
 20 28  1  0  0  0  0
 21 31  2  0  0  0  0
 22 31  1  0  0  0  0
 23 30  1  0  0  0  0
 23 32  2  0  0  0  0
 25 31  1  0  0  0  0
 26 32  1  0  0  0  0
 27 32  1  0  0  0  0
 23 51  1  0  0  0  0
  7 33  1  0  0  0  0
  7 34  1  0  0  0  0
  7 35  1  0  0  0  0
  8 36  1  0  0  0  0
  8 37  1  0  0  0  0
  9 38  1  0  0  0  0
 10 39  1  0  0  0  0
 11 40  1  0  0  0  0
 13 41  1  0  0  0  0
 14 42  1  0  0  0  0
 15 43  1  0  0  0  0
 15 44  1  0  0  0  0
 17 45  1  0  0  0  0
 18 46  1  0  0  0  0
 19 47  1  0  0  0  0
 20 48  1  0  0  0  0
 21 49  1  0  0  0  0
 22 50  1  0  0  0  0
M  CHG  1   3  -1
M  END
$$$$
HAE_F_3004
prProtoss 03312513273D 1   1.00000     0.00000     0
Protoss beta proteinsplus
  9  8  0  0  0  0            999 V2000
   18.6300  -31.3790   49.9300 O   0  5  0  0  0  0  0  0  0  0  0  0
   17.0830  -29.1980   49.4470 O   0  0  0  0  0  0  0  0  0  0  0  0
   17.4440  -31.2980   50.2310 N   0  0  0  0  0  0  0  0  0  0  0  0
   15.2500  -30.3490   50.4470 C   0  0  0  0  0  0  0  0  0  0  0  0
   16.6770  -30.2220   49.9890 C   0  0  0  0  0  0  0  0  0  0  0  0
   17.0212  -32.0822   50.6852 H   0  0  0  0  0  0  0  0  0  0  0  0
   15.1117  -31.2486   50.8612 H   0  0  0  0  0  0  0  0  0  0  0  0
   15.0517  -29.6376   51.1212 H   0  0  0  0  0  0  0  0  0  0  0  0
   14.6378  -30.2452   49.6631 H   0  0  0  0  0  0  0  0  0  0  0  0
  1  3  1  0  0  0  0
  2  5  2  0  0  0  0
  3  5  1  0  0  0  0
  4  5  1  0  0  0  0
  4  9  1  0  0  0  0
  3  6  1  0  0  0  0
  4  7  1  0  0  0  0
  4  8  1  0  0  0  0
M  CHG  1   1  -1
M  END
$$$$
GG1_G_2007
prProtoss 03312513273D 1   1.00000     0.00000     0
Protoss beta proteinsplus
 51 54  0  0  0  0            999 V2000
   40.5130    4.0090   31.9990 O   0  0  0  0  0  0  0  0  0  0  0  0
   34.4660    7.7740   31.4770 O   0  0  0  0  0  0  0  0  0  0  0  0
   34.0860    7.6560   29.3020 O   0  5  0  0  0  0  0  0  0  0  0  0
   39.9170    3.5780   27.6100 O   0  0  0  0  0  0  0  0  0  0  0  0
   42.2250    4.6530   30.6540 N   0  0  0  0  0  0  0  0  0  0  0  0
   40.2090    3.7920   29.8040 N   0  0  0  0  0  0  0  0  0  0  0  0
   43.0450    5.0370   31.8140 C   0  0  0  0  0  0  0  0  0  0  0  0
   38.8750    3.2300   30.0150 C   0  0  0  0  0  0  0  0  0  0  0  0
   42.5200    8.3230   20.7880 C   0  0  0  0  0  0  0  0  0  0  0  0
   43.6650    7.7530   20.2080 C   0  0  0  0  0  0  0  0  0  0  0  0
   42.1990    8.0280   22.1210 C   0  0  0  0  0  0  0  0  0  0  0  0
   44.5390    5.4280   24.4700 C   0  0  0  0  0  0  0  0  0  0  0  0
   44.4780    6.8930   20.9640 C   0  0  0  0  0  0  0  0  0  0  0  0
   43.0110    7.1580   22.8640 C   0  0  0  0  0  0  0  0  0  0  0  0
   45.0690    5.6270   23.1030 C   0  0  0  0  0  0  0  0  0  0  0  0
   44.1170    5.2870   25.5710 C   0  0  0  0  0  0  0  0  0  0  0  0
   43.9850    5.3490   29.1690 C   0  0  0  0  0  0  0  0  0  0  0  0
   44.4710    5.5150   27.8620 C   0  0  0  0  0  0  0  0  0  0  0  0
   37.4530    4.8160   31.3590 C   0  0  0  0  0  0  0  0  0  0  0  0
   37.1680    4.7460   28.9580 C   0  0  0  0  0  0  0  0  0  0  0  0
   36.4680    5.7940   31.4550 C   0  0  0  0  0  0  0  0  0  0  0  0
   36.1840    5.7240   29.0480 C   0  0  0  0  0  0  0  0  0  0  0  0
   42.4100    4.6090   27.0120 C   0  0  0  0  0  0  0  0  0  0  0  0
   40.9800    4.1460   30.8460 C   0  0  0  0  0  0  0  0  0  0  0  0
   34.7550    7.2860   30.3930 C   0  0  0  0  0  0  0  0  0  0  0  0
   40.6590    3.9300   28.5520 C   0  0  0  0  0  0  0  0  0  0  0  0
   42.7080    4.8130   29.4030 C   0  0  0  0  0  0  0  0  0  0  0  0
   37.8100    4.2970   30.1120 C   0  0  0  0  0  0  0  0  0  0  0  0
   44.1670    6.5760   22.2970 C   0  0  0  0  0  0  0  0  0  0  0  0
   43.6750    5.1440   26.7760 C   0  0  0  0  0  0  0  0  0  0  0  0
   35.8340    6.2440   30.2950 C   0  0  0  0  0  0  0  0  0  0  0  0
   41.9260    4.4440   28.3160 C   0  0  0  0  0  0  0  0  0  0  0  0
   43.9260    5.3887   31.4976 H   0  0  0  0  0  0  0  0  0  0  0  0
   42.5715    5.7457   32.3370 H   0  0  0  0  0  0  0  0  0  0  0  0
   43.1947    4.2375   32.3957 H   0  0  0  0  0  0  0  0  0  0  0  0
   38.8794    2.7023   30.8644 H   0  0  0  0  0  0  0  0  0  0  0  0
   38.6559    2.6262   29.2486 H   0  0  0  0  0  0  0  0  0  0  0  0
   41.9372    8.9354   20.2539 H   0  0  0  0  0  0  0  0  0  0  0  0
   43.9009    7.9592   19.2584 H   0  0  0  0  0  0  0  0  0  0  0  0
   41.3903    8.4383   22.5424 H   0  0  0  0  0  0  0  0  0  0  0  0
   45.2954    6.4979   20.5448 H   0  0  0  0  0  0  0  0  0  0  0  0
   42.7676    6.9463   23.8105 H   0  0  0  0  0  0  0  0  0  0  0  0
   45.1133    4.7432   22.6372 H   0  0  0  0  0  0  0  0  0  0  0  0
   45.9870    6.0192   23.1617 H   0  0  0  0  0  0  0  0  0  0  0  0
   44.5566    5.6164   29.9447 H   0  0  0  0  0  0  0  0  0  0  0  0
   45.3825    5.8970   27.7096 H   0  0  0  0  0  0  0  0  0  0  0  0
   37.9070    4.4834   32.1856 H   0  0  0  0  0  0  0  0  0  0  0  0
   37.4152    4.3650   28.0671 H   0  0  0  0  0  0  0  0  0  0  0  0
   36.2164    6.1711   32.3463 H   0  0  0  0  0  0  0  0  0  0  0  0
   35.7282    6.0540   28.2214 H   0  0  0  0  0  0  0  0  0  0  0  0
   41.8383    4.3384   26.2374 H   0  0  0  0  0  0  0  0  0  0  0  0
  1 24  2  0  0  0  0
  2 25  2  0  0  0  0
  3 25  1  0  0  0  0
  4 26  2  0  0  0  0
  5  7  1  0  0  0  0
  5 24  1  0  0  0  0
  5 27  1  0  0  0  0
  6  8  1  0  0  0  0
  6 24  1  0  0  0  0
  6 26  1  0  0  0  0
  8 28  1  0  0  0  0
  9 10  2  0  0  0  0
  9 11  1  0  0  0  0
 10 13  1  0  0  0  0
 11 14  2  0  0  0  0
 12 15  1  0  0  0  0
 12 16  3  0  0  0  0
 13 29  2  0  0  0  0
 14 29  1  0  0  0  0
 15 29  1  0  0  0  0
 16 30  1  0  0  0  0
 17 18  1  0  0  0  0
 17 27  2  0  0  0  0
 18 30  2  0  0  0  0
 19 21  1  0  0  0  0
 19 28  2  0  0  0  0
 20 22  2  0  0  0  0
 20 28  1  0  0  0  0
 21 31  2  0  0  0  0
 22 31  1  0  0  0  0
 23 30  1  0  0  0  0
 23 32  2  0  0  0  0
 25 31  1  0  0  0  0
 26 32  1  0  0  0  0
 27 32  1  0  0  0  0
 23 51  1  0  0  0  0
  7 33  1  0  0  0  0
  7 34  1  0  0  0  0
  7 35  1  0  0  0  0
  8 36  1  0  0  0  0
  8 37  1  0  0  0  0
  9 38  1  0  0  0  0
 10 39  1  0  0  0  0
 11 40  1  0  0  0  0
 13 41  1  0  0  0  0
 14 42  1  0  0  0  0
 15 43  1  0  0  0  0
 15 44  1  0  0  0  0
 17 45  1  0  0  0  0
 18 46  1  0  0  0  0
 19 47  1  0  0  0  0
 20 48  1  0  0  0  0
 21 49  1  0  0  0  0
 22 50  1  0  0  0  0
M  CHG  1   3  -1
M  END
$$$$
GG1_H_2008
prProtoss 03312513273D 1   1.00000     0.00000     0
Protoss beta proteinsplus
 51 54  0  0  0  0            999 V2000
   40.5860  -32.0190   32.0190 O   0  0  0  0  0  0  0  0  0  0  0  0
   34.5030  -28.2660   31.2940 O   0  0  0  0  0  0  0  0  0  0  0  0
   33.7980  -28.8520   29.3060 O   0  5  0  0  0  0  0  0  0  0  0  0
   39.9450  -32.5750   27.6510 O   0  0  0  0  0  0  0  0  0  0  0  0
   42.2300  -31.3260   30.6460 N   0  0  0  0  0  0  0  0  0  0  0  0
   40.2610  -32.2970   29.8300 N   0  0  0  0  0  0  0  0  0  0  0  0
   43.0180  -30.8860   31.8040 C   0  0  0  0  0  0  0  0  0  0  0  0
   38.9610  -32.9000   30.1140 C   0  0  0  0  0  0  0  0  0  0  0  0
   42.6410  -27.5820   20.6860 C   0  0  0  0  0  0  0  0  0  0  0  0
   43.9300  -27.9430   20.2780 C   0  0  0  0  0  0  0  0  0  0  0  0
   42.1140  -28.1190   21.8660 C   0  0  0  0  0  0  0  0  0  0  0  0
   44.5180  -30.5360   24.4570 C   0  0  0  0  0  0  0  0  0  0  0  0
   44.6710  -28.8480   21.0520 C   0  0  0  0  0  0  0  0  0  0  0  0
   42.8570  -29.0210   22.6400 C   0  0  0  0  0  0  0  0  0  0  0  0
   45.0000  -30.3750   23.0680 C   0  0  0  0  0  0  0  0  0  0  0  0
   44.1060  -30.6800   25.5620 C   0  0  0  0  0  0  0  0  0  0  0  0
   43.9520  -30.5770   29.1560 C   0  0  0  0  0  0  0  0  0  0  0  0
   44.4340  -30.4140   27.8520 C   0  0  0  0  0  0  0  0  0  0  0  0
   37.4250  -31.3580   31.4140 C   0  0  0  0  0  0  0  0  0  0  0  0
   37.2310  -31.4370   29.0150 C   0  0  0  0  0  0  0  0  0  0  0  0
   36.3990  -30.4060   31.4650 C   0  0  0  0  0  0  0  0  0  0  0  0
   36.2040  -30.5020   29.0610 C   0  0  0  0  0  0  0  0  0  0  0  0
   42.4150  -31.4190   27.0010 C   0  0  0  0  0  0  0  0  0  0  0  0
   41.0240  -31.8830   30.8540 C   0  0  0  0  0  0  0  0  0  0  0  0
   34.6610  -28.9690   30.3190 C   0  0  0  0  0  0  0  0  0  0  0  0
   40.6860  -32.1720   28.5690 C   0  0  0  0  0  0  0  0  0  0  0  0
   42.7020  -31.1650   29.3900 C   0  0  0  0  0  0  0  0  0  0  0  0
   37.8510  -31.8650   30.1860 C   0  0  0  0  0  0  0  0  0  0  0  0
   44.1510  -29.3980   22.2410 C   0  0  0  0  0  0  0  0  0  0  0  0
   43.6610  -30.8350   26.7670 C   0  0  0  0  0  0  0  0  0  0  0  0
   35.7820  -29.9770   30.2840 C   0  0  0  0  0  0  0  0  0  0  0  0
   41.9330  -31.5920   28.3100 C   0  0  0  0  0  0  0  0  0  0  0  0
   43.8834  -30.4960   31.4895 H   0  0  0  0  0  0  0  0  0  0  0  0
   42.5056  -30.1938   32.3123 H   0  0  0  0  0  0  0  0  0  0  0  0
   43.2017  -31.6685   32.3990 H   0  0  0  0  0  0  0  0  0  0  0  0
   39.0126  -33.3783   30.9907 H   0  0  0  0  0  0  0  0  0  0  0  0
   38.7445  -33.5544   29.3895 H   0  0  0  0  0  0  0  0  0  0  0  0
   42.0999  -26.9443   20.1378 H   0  0  0  0  0  0  0  0  0  0  0  0
   44.3198  -27.5587   19.4411 H   0  0  0  0  0  0  0  0  0  0  0  0
   41.1954  -27.8558   22.1608 H   0  0  0  0  0  0  0  0  0  0  0  0
   45.5890  -29.1089   20.7535 H   0  0  0  0  0  0  0  0  0  0  0  0
   42.4650  -29.3977   23.4793 H   0  0  0  0  0  0  0  0  0  0  0  0
   44.9823  -31.2689   22.6200 H   0  0  0  0  0  0  0  0  0  0  0  0
   45.9398  -30.0344   23.0954 H   0  0  0  0  0  0  0  0  0  0  0  0
   44.5063  -30.2702   29.9297 H   0  0  0  0  0  0  0  0  0  0  0  0
   45.3297  -29.9971   27.6973 H   0  0  0  0  0  0  0  0  0  0  0  0
   37.8534  -31.6752   32.2601 H   0  0  0  0  0  0  0  0  0  0  0  0
   37.5272  -31.8054   28.1338 H   0  0  0  0  0  0  0  0  0  0  0  0
   36.1071  -30.0326   32.3455 H   0  0  0  0  0  0  0  0  0  0  0  0
   35.7648  -30.2036   28.2136 H   0  0  0  0  0  0  0  0  0  0  0  0
   41.8575  -31.7184   26.2267 H   0  0  0  0  0  0  0  0  0  0  0  0
  1 24  2  0  0  0  0
  2 25  2  0  0  0  0
  3 25  1  0  0  0  0
  4 26  2  0  0  0  0
  5  7  1  0  0  0  0
  5 24  1  0  0  0  0
  5 27  1  0  0  0  0
  6  8  1  0  0  0  0
  6 24  1  0  0  0  0
  6 26  1  0  0  0  0
  8 28  1  0  0  0  0
  9 10  2  0  0  0  0
  9 11  1  0  0  0  0
 10 13  1  0  0  0  0
 11 14  2  0  0  0  0
 12 15  1  0  0  0  0
 12 16  3  0  0  0  0
 13 29  2  0  0  0  0
 14 29  1  0  0  0  0
 15 29  1  0  0  0  0
 16 30  1  0  0  0  0
 17 18  1  0  0  0  0
 17 27  2  0  0  0  0
 18 30  2  0  0  0  0
 19 21  1  0  0  0  0
 19 28  2  0  0  0  0
 20 22  2  0  0  0  0
 20 28  1  0  0  0  0
 21 31  2  0  0  0  0
 22 31  1  0  0  0  0
 23 30  1  0  0  0  0
 23 32  2  0  0  0  0
 25 31  1  0  0  0  0
 26 32  1  0  0  0  0
 27 32  1  0  0  0  0
 23 51  1  0  0  0  0
  7 33  1  0  0  0  0
  7 34  1  0  0  0  0
  7 35  1  0  0  0  0
  8 36  1  0  0  0  0
  8 37  1  0  0  0  0
  9 38  1  0  0  0  0
 10 39  1  0  0  0  0
 11 40  1  0  0  0  0
 13 41  1  0  0  0  0
 14 42  1  0  0  0  0
 15 43  1  0  0  0  0
 15 44  1  0  0  0  0
 17 45  1  0  0  0  0
 18 46  1  0  0  0  0
 19 47  1  0  0  0  0
 20 48  1  0  0  0  0
 21 49  1  0  0  0  0
 22 50  1  0  0  0  0
M  CHG  1   3  -1
M  END
$$$$
